---------- Begin Simulation Statistics ----------
sim_seconds                                 91.438995                       # Number of seconds simulated
sim_ticks                                91438994896000                       # Number of ticks simulated
final_tick                               231265429459000                       # Number of ticks from beginning of simulation (restored from checkpoints and never reset)
sim_freq                                 1000000000000                       # Frequency of simulated ticks
host_inst_rate                                2900830                       # Simulator instruction rate (inst/s)
host_op_rate                                  3616091                       # Simulator op (including micro ops) rate (op/s)
host_tick_rate                           106846851739                       # Simulator tick rate (ticks/s)
host_mem_usage                                1012784                       # Number of bytes of host memory used
host_seconds                                   855.80                       # Real time elapsed on the host
sim_insts                                  2482515126                       # Number of instructions simulated
sim_ops                                    3094632581                       # Number of ops (including micro ops) simulated
system.voltage_domain.voltage                       1                       # Voltage in Volts
system.clk_domain.clock                          1000                       # Clock period in ticks
system.mem_ctrls.pwrStateResidencyTicks::UNDEFINED 91438994896000                       # Cumulative time (in ticks) in various power states
system.mem_ctrls.bytes_read::cpu0.dtb.walker        11996                       # Number of bytes read from this memory
system.mem_ctrls.bytes_read::cpu0.itb.walker         5564                       # Number of bytes read from this memory
system.mem_ctrls.bytes_read::cpu0.inst       47564460                       # Number of bytes read from this memory
system.mem_ctrls.bytes_read::cpu0.data       13034800                       # Number of bytes read from this memory
system.mem_ctrls.bytes_read::cpu1.dtb.walker        56512                       # Number of bytes read from this memory
system.mem_ctrls.bytes_read::cpu1.itb.walker        16172                       # Number of bytes read from this memory
system.mem_ctrls.bytes_read::cpu1.inst      129282644                       # Number of bytes read from this memory
system.mem_ctrls.bytes_read::cpu1.data       27808131                       # Number of bytes read from this memory
system.mem_ctrls.bytes_read::realview.hdlcd  22384114112                       # Number of bytes read from this memory
system.mem_ctrls.bytes_read::realview.ide       171368                       # Number of bytes read from this memory
system.mem_ctrls.bytes_read::total        22602065759                       # Number of bytes read from this memory
system.mem_ctrls.bytes_inst_read::cpu0.inst     47564460                       # Number of instructions bytes read from this memory
system.mem_ctrls.bytes_inst_read::cpu1.inst    129282644                       # Number of instructions bytes read from this memory
system.mem_ctrls.bytes_inst_read::total     176847104                       # Number of instructions bytes read from this memory
system.mem_ctrls.bytes_written::cpu0.data      8884177                       # Number of bytes written to this memory
system.mem_ctrls.bytes_written::cpu1.data     16199424                       # Number of bytes written to this memory
system.mem_ctrls.bytes_written::realview.ide      1618944                       # Number of bytes written to this memory
system.mem_ctrls.bytes_written::total        26702545                       # Number of bytes written to this memory
system.mem_ctrls.num_reads::cpu0.dtb.walker         2999                       # Number of read requests responded to by this memory
system.mem_ctrls.num_reads::cpu0.itb.walker         1391                       # Number of read requests responded to by this memory
system.mem_ctrls.num_reads::cpu0.inst        11891115                       # Number of read requests responded to by this memory
system.mem_ctrls.num_reads::cpu0.data         2650353                       # Number of read requests responded to by this memory
system.mem_ctrls.num_reads::cpu1.dtb.walker        14128                       # Number of read requests responded to by this memory
system.mem_ctrls.num_reads::cpu1.itb.walker         4043                       # Number of read requests responded to by this memory
system.mem_ctrls.num_reads::cpu1.inst        32320661                       # Number of read requests responded to by this memory
system.mem_ctrls.num_reads::cpu1.data         7365393                       # Number of read requests responded to by this memory
system.mem_ctrls.num_reads::realview.hdlcd    349751783                       # Number of read requests responded to by this memory
system.mem_ctrls.num_reads::realview.ide         3053                       # Number of read requests responded to by this memory
system.mem_ctrls.num_reads::total           404004919                       # Number of read requests responded to by this memory
system.mem_ctrls.num_writes::cpu0.data        2167977                       # Number of write requests responded to by this memory
system.mem_ctrls.num_writes::cpu1.data        4198861                       # Number of write requests responded to by this memory
system.mem_ctrls.num_writes::realview.ide        25296                       # Number of write requests responded to by this memory
system.mem_ctrls.num_writes::total            6392134                       # Number of write requests responded to by this memory
system.mem_ctrls.bw_read::cpu0.dtb.walker          131                       # Total read bandwidth from this memory (bytes/s)
system.mem_ctrls.bw_read::cpu0.itb.walker           61                       # Total read bandwidth from this memory (bytes/s)
system.mem_ctrls.bw_read::cpu0.inst            520177                       # Total read bandwidth from this memory (bytes/s)
system.mem_ctrls.bw_read::cpu0.data            142552                       # Total read bandwidth from this memory (bytes/s)
system.mem_ctrls.bw_read::cpu1.dtb.walker          618                       # Total read bandwidth from this memory (bytes/s)
system.mem_ctrls.bw_read::cpu1.itb.walker          177                       # Total read bandwidth from this memory (bytes/s)
system.mem_ctrls.bw_read::cpu1.inst           1413868                       # Total read bandwidth from this memory (bytes/s)
system.mem_ctrls.bw_read::cpu1.data            304117                       # Total read bandwidth from this memory (bytes/s)
system.mem_ctrls.bw_read::realview.hdlcd    244798339                       # Total read bandwidth from this memory (bytes/s)
system.mem_ctrls.bw_read::realview.ide           1874                       # Total read bandwidth from this memory (bytes/s)
system.mem_ctrls.bw_read::total             247181914                       # Total read bandwidth from this memory (bytes/s)
system.mem_ctrls.bw_inst_read::cpu0.inst       520177                       # Instruction read bandwidth from this memory (bytes/s)
system.mem_ctrls.bw_inst_read::cpu1.inst      1413868                       # Instruction read bandwidth from this memory (bytes/s)
system.mem_ctrls.bw_inst_read::total          1934045                       # Instruction read bandwidth from this memory (bytes/s)
system.mem_ctrls.bw_write::cpu0.data            97160                       # Write bandwidth from this memory (bytes/s)
system.mem_ctrls.bw_write::cpu1.data           177161                       # Write bandwidth from this memory (bytes/s)
system.mem_ctrls.bw_write::realview.ide         17705                       # Write bandwidth from this memory (bytes/s)
system.mem_ctrls.bw_write::total               292026                       # Write bandwidth from this memory (bytes/s)
system.mem_ctrls.bw_total::cpu0.dtb.walker          131                       # Total bandwidth to/from this memory (bytes/s)
system.mem_ctrls.bw_total::cpu0.itb.walker           61                       # Total bandwidth to/from this memory (bytes/s)
system.mem_ctrls.bw_total::cpu0.inst           520177                       # Total bandwidth to/from this memory (bytes/s)
system.mem_ctrls.bw_total::cpu0.data           239711                       # Total bandwidth to/from this memory (bytes/s)
system.mem_ctrls.bw_total::cpu1.dtb.walker          618                       # Total bandwidth to/from this memory (bytes/s)
system.mem_ctrls.bw_total::cpu1.itb.walker          177                       # Total bandwidth to/from this memory (bytes/s)
system.mem_ctrls.bw_total::cpu1.inst          1413868                       # Total bandwidth to/from this memory (bytes/s)
system.mem_ctrls.bw_total::cpu1.data           481278                       # Total bandwidth to/from this memory (bytes/s)
system.mem_ctrls.bw_total::realview.hdlcd    244798339                       # Total bandwidth to/from this memory (bytes/s)
system.mem_ctrls.bw_total::realview.ide         19579                       # Total bandwidth to/from this memory (bytes/s)
system.mem_ctrls.bw_total::total            247473940                       # Total bandwidth to/from this memory (bytes/s)
system.mem_ctrls.readReqs                           0                       # Number of read requests accepted
system.mem_ctrls.writeReqs                          0                       # Number of write requests accepted
system.mem_ctrls.readBursts                         0                       # Number of DRAM read bursts, including those serviced by the write queue
system.mem_ctrls.writeBursts                        0                       # Number of DRAM write bursts, including those merged in the write queue
system.mem_ctrls.bytesReadDRAM                      0                       # Total number of bytes read from DRAM
system.mem_ctrls.bytesReadWrQ                       0                       # Total number of bytes read from write queue
system.mem_ctrls.bytesWritten                       0                       # Total number of bytes written to DRAM
system.mem_ctrls.bytesReadSys                       0                       # Total read bytes from the system interface side
system.mem_ctrls.bytesWrittenSys                    0                       # Total written bytes from the system interface side
system.mem_ctrls.servicedByWrQ                      0                       # Number of DRAM read bursts serviced by the write queue
system.mem_ctrls.mergedWrBursts                     0                       # Number of DRAM write bursts merged with an existing one
system.mem_ctrls.neitherReadNorWriteReqs            0                       # Number of requests that are neither read nor write
system.mem_ctrls.perBankRdBursts::0                 0                       # Per bank write bursts
system.mem_ctrls.perBankRdBursts::1                 0                       # Per bank write bursts
system.mem_ctrls.perBankRdBursts::2                 0                       # Per bank write bursts
system.mem_ctrls.perBankRdBursts::3                 0                       # Per bank write bursts
system.mem_ctrls.perBankRdBursts::4                 0                       # Per bank write bursts
system.mem_ctrls.perBankRdBursts::5                 0                       # Per bank write bursts
system.mem_ctrls.perBankRdBursts::6                 0                       # Per bank write bursts
system.mem_ctrls.perBankRdBursts::7                 0                       # Per bank write bursts
system.mem_ctrls.perBankRdBursts::8                 0                       # Per bank write bursts
system.mem_ctrls.perBankRdBursts::9                 0                       # Per bank write bursts
system.mem_ctrls.perBankRdBursts::10                0                       # Per bank write bursts
system.mem_ctrls.perBankRdBursts::11                0                       # Per bank write bursts
system.mem_ctrls.perBankRdBursts::12                0                       # Per bank write bursts
system.mem_ctrls.perBankRdBursts::13                0                       # Per bank write bursts
system.mem_ctrls.perBankRdBursts::14                0                       # Per bank write bursts
system.mem_ctrls.perBankRdBursts::15                0                       # Per bank write bursts
system.mem_ctrls.perBankWrBursts::0                 0                       # Per bank write bursts
system.mem_ctrls.perBankWrBursts::1                 0                       # Per bank write bursts
system.mem_ctrls.perBankWrBursts::2                 0                       # Per bank write bursts
system.mem_ctrls.perBankWrBursts::3                 0                       # Per bank write bursts
system.mem_ctrls.perBankWrBursts::4                 0                       # Per bank write bursts
system.mem_ctrls.perBankWrBursts::5                 0                       # Per bank write bursts
system.mem_ctrls.perBankWrBursts::6                 0                       # Per bank write bursts
system.mem_ctrls.perBankWrBursts::7                 0                       # Per bank write bursts
system.mem_ctrls.perBankWrBursts::8                 0                       # Per bank write bursts
system.mem_ctrls.perBankWrBursts::9                 0                       # Per bank write bursts
system.mem_ctrls.perBankWrBursts::10                0                       # Per bank write bursts
system.mem_ctrls.perBankWrBursts::11                0                       # Per bank write bursts
system.mem_ctrls.perBankWrBursts::12                0                       # Per bank write bursts
system.mem_ctrls.perBankWrBursts::13                0                       # Per bank write bursts
system.mem_ctrls.perBankWrBursts::14                0                       # Per bank write bursts
system.mem_ctrls.perBankWrBursts::15                0                       # Per bank write bursts
system.mem_ctrls.numRdRetry                         0                       # Number of times read queue was full causing retry
system.mem_ctrls.numWrRetry                         0                       # Number of times write queue was full causing retry
system.mem_ctrls.totGap                             0                       # Total gap between requests
system.mem_ctrls.readPktSize::0                     0                       # Read request sizes (log2)
system.mem_ctrls.readPktSize::1                     0                       # Read request sizes (log2)
system.mem_ctrls.readPktSize::2                     0                       # Read request sizes (log2)
system.mem_ctrls.readPktSize::3                     0                       # Read request sizes (log2)
system.mem_ctrls.readPktSize::4                     0                       # Read request sizes (log2)
system.mem_ctrls.readPktSize::5                     0                       # Read request sizes (log2)
system.mem_ctrls.readPktSize::6                     0                       # Read request sizes (log2)
system.mem_ctrls.writePktSize::0                    0                       # Write request sizes (log2)
system.mem_ctrls.writePktSize::1                    0                       # Write request sizes (log2)
system.mem_ctrls.writePktSize::2                    0                       # Write request sizes (log2)
system.mem_ctrls.writePktSize::3                    0                       # Write request sizes (log2)
system.mem_ctrls.writePktSize::4                    0                       # Write request sizes (log2)
system.mem_ctrls.writePktSize::5                    0                       # Write request sizes (log2)
system.mem_ctrls.writePktSize::6                    0                       # Write request sizes (log2)
system.mem_ctrls.rdQLenPdf::0                       0                       # What read queue length does an incoming req see
system.mem_ctrls.rdQLenPdf::1                       0                       # What read queue length does an incoming req see
system.mem_ctrls.rdQLenPdf::2                       0                       # What read queue length does an incoming req see
system.mem_ctrls.rdQLenPdf::3                       0                       # What read queue length does an incoming req see
system.mem_ctrls.rdQLenPdf::4                       0                       # What read queue length does an incoming req see
system.mem_ctrls.rdQLenPdf::5                       0                       # What read queue length does an incoming req see
system.mem_ctrls.rdQLenPdf::6                       0                       # What read queue length does an incoming req see
system.mem_ctrls.rdQLenPdf::7                       0                       # What read queue length does an incoming req see
system.mem_ctrls.rdQLenPdf::8                       0                       # What read queue length does an incoming req see
system.mem_ctrls.rdQLenPdf::9                       0                       # What read queue length does an incoming req see
system.mem_ctrls.rdQLenPdf::10                      0                       # What read queue length does an incoming req see
system.mem_ctrls.rdQLenPdf::11                      0                       # What read queue length does an incoming req see
system.mem_ctrls.rdQLenPdf::12                      0                       # What read queue length does an incoming req see
system.mem_ctrls.rdQLenPdf::13                      0                       # What read queue length does an incoming req see
system.mem_ctrls.rdQLenPdf::14                      0                       # What read queue length does an incoming req see
system.mem_ctrls.rdQLenPdf::15                      0                       # What read queue length does an incoming req see
system.mem_ctrls.rdQLenPdf::16                      0                       # What read queue length does an incoming req see
system.mem_ctrls.rdQLenPdf::17                      0                       # What read queue length does an incoming req see
system.mem_ctrls.rdQLenPdf::18                      0                       # What read queue length does an incoming req see
system.mem_ctrls.rdQLenPdf::19                      0                       # What read queue length does an incoming req see
system.mem_ctrls.rdQLenPdf::20                      0                       # What read queue length does an incoming req see
system.mem_ctrls.rdQLenPdf::21                      0                       # What read queue length does an incoming req see
system.mem_ctrls.rdQLenPdf::22                      0                       # What read queue length does an incoming req see
system.mem_ctrls.rdQLenPdf::23                      0                       # What read queue length does an incoming req see
system.mem_ctrls.rdQLenPdf::24                      0                       # What read queue length does an incoming req see
system.mem_ctrls.rdQLenPdf::25                      0                       # What read queue length does an incoming req see
system.mem_ctrls.rdQLenPdf::26                      0                       # What read queue length does an incoming req see
system.mem_ctrls.rdQLenPdf::27                      0                       # What read queue length does an incoming req see
system.mem_ctrls.rdQLenPdf::28                      0                       # What read queue length does an incoming req see
system.mem_ctrls.rdQLenPdf::29                      0                       # What read queue length does an incoming req see
system.mem_ctrls.rdQLenPdf::30                      0                       # What read queue length does an incoming req see
system.mem_ctrls.rdQLenPdf::31                      0                       # What read queue length does an incoming req see
system.mem_ctrls.wrQLenPdf::0                       0                       # What write queue length does an incoming req see
system.mem_ctrls.wrQLenPdf::1                       0                       # What write queue length does an incoming req see
system.mem_ctrls.wrQLenPdf::2                       0                       # What write queue length does an incoming req see
system.mem_ctrls.wrQLenPdf::3                       0                       # What write queue length does an incoming req see
system.mem_ctrls.wrQLenPdf::4                       0                       # What write queue length does an incoming req see
system.mem_ctrls.wrQLenPdf::5                       0                       # What write queue length does an incoming req see
system.mem_ctrls.wrQLenPdf::6                       0                       # What write queue length does an incoming req see
system.mem_ctrls.wrQLenPdf::7                       0                       # What write queue length does an incoming req see
system.mem_ctrls.wrQLenPdf::8                       0                       # What write queue length does an incoming req see
system.mem_ctrls.wrQLenPdf::9                       0                       # What write queue length does an incoming req see
system.mem_ctrls.wrQLenPdf::10                      0                       # What write queue length does an incoming req see
system.mem_ctrls.wrQLenPdf::11                      0                       # What write queue length does an incoming req see
system.mem_ctrls.wrQLenPdf::12                      0                       # What write queue length does an incoming req see
system.mem_ctrls.wrQLenPdf::13                      0                       # What write queue length does an incoming req see
system.mem_ctrls.wrQLenPdf::14                      0                       # What write queue length does an incoming req see
system.mem_ctrls.wrQLenPdf::15                      0                       # What write queue length does an incoming req see
system.mem_ctrls.wrQLenPdf::16                      0                       # What write queue length does an incoming req see
system.mem_ctrls.wrQLenPdf::17                      0                       # What write queue length does an incoming req see
system.mem_ctrls.wrQLenPdf::18                      0                       # What write queue length does an incoming req see
system.mem_ctrls.wrQLenPdf::19                      0                       # What write queue length does an incoming req see
system.mem_ctrls.wrQLenPdf::20                      0                       # What write queue length does an incoming req see
system.mem_ctrls.wrQLenPdf::21                      0                       # What write queue length does an incoming req see
system.mem_ctrls.wrQLenPdf::22                      0                       # What write queue length does an incoming req see
system.mem_ctrls.wrQLenPdf::23                      0                       # What write queue length does an incoming req see
system.mem_ctrls.wrQLenPdf::24                      0                       # What write queue length does an incoming req see
system.mem_ctrls.wrQLenPdf::25                      0                       # What write queue length does an incoming req see
system.mem_ctrls.wrQLenPdf::26                      0                       # What write queue length does an incoming req see
system.mem_ctrls.wrQLenPdf::27                      0                       # What write queue length does an incoming req see
system.mem_ctrls.wrQLenPdf::28                      0                       # What write queue length does an incoming req see
system.mem_ctrls.wrQLenPdf::29                      0                       # What write queue length does an incoming req see
system.mem_ctrls.wrQLenPdf::30                      0                       # What write queue length does an incoming req see
system.mem_ctrls.wrQLenPdf::31                      0                       # What write queue length does an incoming req see
system.mem_ctrls.wrQLenPdf::32                      0                       # What write queue length does an incoming req see
system.mem_ctrls.wrQLenPdf::33                      0                       # What write queue length does an incoming req see
system.mem_ctrls.wrQLenPdf::34                      0                       # What write queue length does an incoming req see
system.mem_ctrls.wrQLenPdf::35                      0                       # What write queue length does an incoming req see
system.mem_ctrls.wrQLenPdf::36                      0                       # What write queue length does an incoming req see
system.mem_ctrls.wrQLenPdf::37                      0                       # What write queue length does an incoming req see
system.mem_ctrls.wrQLenPdf::38                      0                       # What write queue length does an incoming req see
system.mem_ctrls.wrQLenPdf::39                      0                       # What write queue length does an incoming req see
system.mem_ctrls.wrQLenPdf::40                      0                       # What write queue length does an incoming req see
system.mem_ctrls.wrQLenPdf::41                      0                       # What write queue length does an incoming req see
system.mem_ctrls.wrQLenPdf::42                      0                       # What write queue length does an incoming req see
system.mem_ctrls.wrQLenPdf::43                      0                       # What write queue length does an incoming req see
system.mem_ctrls.wrQLenPdf::44                      0                       # What write queue length does an incoming req see
system.mem_ctrls.wrQLenPdf::45                      0                       # What write queue length does an incoming req see
system.mem_ctrls.wrQLenPdf::46                      0                       # What write queue length does an incoming req see
system.mem_ctrls.wrQLenPdf::47                      0                       # What write queue length does an incoming req see
system.mem_ctrls.wrQLenPdf::48                      0                       # What write queue length does an incoming req see
system.mem_ctrls.wrQLenPdf::49                      0                       # What write queue length does an incoming req see
system.mem_ctrls.wrQLenPdf::50                      0                       # What write queue length does an incoming req see
system.mem_ctrls.wrQLenPdf::51                      0                       # What write queue length does an incoming req see
system.mem_ctrls.wrQLenPdf::52                      0                       # What write queue length does an incoming req see
system.mem_ctrls.wrQLenPdf::53                      0                       # What write queue length does an incoming req see
system.mem_ctrls.wrQLenPdf::54                      0                       # What write queue length does an incoming req see
system.mem_ctrls.wrQLenPdf::55                      0                       # What write queue length does an incoming req see
system.mem_ctrls.wrQLenPdf::56                      0                       # What write queue length does an incoming req see
system.mem_ctrls.wrQLenPdf::57                      0                       # What write queue length does an incoming req see
system.mem_ctrls.wrQLenPdf::58                      0                       # What write queue length does an incoming req see
system.mem_ctrls.wrQLenPdf::59                      0                       # What write queue length does an incoming req see
system.mem_ctrls.wrQLenPdf::60                      0                       # What write queue length does an incoming req see
system.mem_ctrls.wrQLenPdf::61                      0                       # What write queue length does an incoming req see
system.mem_ctrls.wrQLenPdf::62                      0                       # What write queue length does an incoming req see
system.mem_ctrls.wrQLenPdf::63                      0                       # What write queue length does an incoming req see
system.mem_ctrls.totQLat                            0                       # Total ticks spent queuing
system.mem_ctrls.totMemAccLat                       0                       # Total ticks spent from burst creation until serviced by the DRAM
system.mem_ctrls.totBusLat                          0                       # Total ticks spent in databus transfers
system.mem_ctrls.avgQLat                          nan                       # Average queueing delay per DRAM burst
system.mem_ctrls.avgBusLat                        nan                       # Average bus latency per DRAM burst
system.mem_ctrls.avgMemAccLat                     nan                       # Average memory access latency per DRAM burst
system.mem_ctrls.avgRdBW                         0.00                       # Average DRAM read bandwidth in MiByte/s
system.mem_ctrls.avgWrBW                         0.00                       # Average achieved write bandwidth in MiByte/s
system.mem_ctrls.avgRdBWSys                      0.00                       # Average system read bandwidth in MiByte/s
system.mem_ctrls.avgWrBWSys                      0.00                       # Average system write bandwidth in MiByte/s
system.mem_ctrls.peakBW                      12800.00                       # Theoretical peak bandwidth in MiByte/s
system.mem_ctrls.busUtil                         0.00                       # Data bus utilization in percentage
system.mem_ctrls.busUtilRead                     0.00                       # Data bus utilization in percentage for reads
system.mem_ctrls.busUtilWrite                    0.00                       # Data bus utilization in percentage for writes
system.mem_ctrls.avgRdQLen                       0.00                       # Average read queue length when enqueuing
system.mem_ctrls.avgWrQLen                       0.00                       # Average write queue length when enqueuing
system.mem_ctrls.readRowHits                        0                       # Number of row buffer hits during reads
system.mem_ctrls.writeRowHits                       0                       # Number of row buffer hits during writes
system.mem_ctrls.readRowHitRate                   nan                       # Row buffer hit rate for reads
system.mem_ctrls.writeRowHitRate                  nan                       # Row buffer hit rate for writes
system.mem_ctrls.avgGap                           nan                       # Average gap between requests
system.mem_ctrls.pageHitRate                      nan                       # Row buffer hit rate, read and write combined
system.mem_ctrls_0.actEnergy                        0                       # Energy for activate commands per rank (pJ)
system.mem_ctrls_0.preEnergy                        0                       # Energy for precharge commands per rank (pJ)
system.mem_ctrls_0.readEnergy                       0                       # Energy for read commands per rank (pJ)
system.mem_ctrls_0.writeEnergy                      0                       # Energy for write commands per rank (pJ)
system.mem_ctrls_0.refreshEnergy                    0                       # Energy for refresh commands per rank (pJ)
system.mem_ctrls_0.actBackEnergy                    0                       # Energy for active background per rank (pJ)
system.mem_ctrls_0.preBackEnergy         242864502381600                       # Energy for precharge background per rank (pJ)
system.mem_ctrls_0.actPowerDownEnergy               0                       # Energy for active power-down per rank (pJ)
system.mem_ctrls_0.prePowerDownEnergy               0                       # Energy for precharge power-down per rank (pJ)
system.mem_ctrls_0.selfRefreshEnergy                0                       # Energy for self refresh per rank (pJ)
system.mem_ctrls_0.totalEnergy           242864502381600                       # Total energy per rank (pJ)
system.mem_ctrls_0.averagePower                   384                       # Core power per rank (mW)
system.mem_ctrls_0.totalIdleTime                    0                       # Total Idle time Per DRAM Rank
system.mem_ctrls_0.memoryStateTime::IDLE 91438994896000                       # Time in different power states
system.mem_ctrls_0.memoryStateTime::REF             0                       # Time in different power states
system.mem_ctrls_0.memoryStateTime::SREF            0                       # Time in different power states
system.mem_ctrls_0.memoryStateTime::PRE_PDN            0                       # Time in different power states
system.mem_ctrls_0.memoryStateTime::ACT             0                       # Time in different power states
system.mem_ctrls_0.memoryStateTime::ACT_PDN            0                       # Time in different power states
system.mem_ctrls_1.actEnergy                        0                       # Energy for activate commands per rank (pJ)
system.mem_ctrls_1.preEnergy                        0                       # Energy for precharge commands per rank (pJ)
system.mem_ctrls_1.readEnergy                       0                       # Energy for read commands per rank (pJ)
system.mem_ctrls_1.writeEnergy                      0                       # Energy for write commands per rank (pJ)
system.mem_ctrls_1.refreshEnergy                    0                       # Energy for refresh commands per rank (pJ)
system.mem_ctrls_1.actBackEnergy                    0                       # Energy for active background per rank (pJ)
system.mem_ctrls_1.preBackEnergy         242864502381600                       # Energy for precharge background per rank (pJ)
system.mem_ctrls_1.actPowerDownEnergy               0                       # Energy for active power-down per rank (pJ)
system.mem_ctrls_1.prePowerDownEnergy               0                       # Energy for precharge power-down per rank (pJ)
system.mem_ctrls_1.selfRefreshEnergy                0                       # Energy for self refresh per rank (pJ)
system.mem_ctrls_1.totalEnergy           242864502381600                       # Total energy per rank (pJ)
system.mem_ctrls_1.averagePower                   384                       # Core power per rank (mW)
system.mem_ctrls_1.totalIdleTime                    0                       # Total Idle time Per DRAM Rank
system.mem_ctrls_1.memoryStateTime::IDLE 91438994896000                       # Time in different power states
system.mem_ctrls_1.memoryStateTime::REF             0                       # Time in different power states
system.mem_ctrls_1.memoryStateTime::SREF            0                       # Time in different power states
system.mem_ctrls_1.memoryStateTime::PRE_PDN            0                       # Time in different power states
system.mem_ctrls_1.memoryStateTime::ACT             0                       # Time in different power states
system.mem_ctrls_1.memoryStateTime::ACT_PDN            0                       # Time in different power states
system.realview.nvmem.pwrStateResidencyTicks::UNDEFINED 91438994896000                       # Cumulative time (in ticks) in various power states
system.realview.vram.pwrStateResidencyTicks::UNDEFINED 91438994896000                       # Cumulative time (in ticks) in various power states
system.pwrStateResidencyTicks::UNDEFINED 91438994896000                       # Cumulative time (in ticks) in various power states
system.bridge.pwrStateResidencyTicks::UNDEFINED 91438994896000                       # Cumulative time (in ticks) in various power states
system.cf0.dma_read_full_pages                      1                       # Number of full page size DMA reads (not PRD).
system.cf0.dma_read_bytes                      167936                       # Number of bytes transfered via DMA reads (not PRD).
system.cf0.dma_read_txs                           139                       # Number of DMA read transactions (not PRD).
system.cf0.dma_write_full_pages                   372                       # Number of full page size DMA writes.
system.cf0.dma_write_bytes                    1618944                       # Number of bytes transfered via DMA writes.
system.cf0.dma_write_txs                          451                       # Number of DMA write transactions.
system.cpu0.dstage2_mmu.stage2_tlb.walker.pwrStateResidencyTicks::UNDEFINED 91438994896000                       # Cumulative time (in ticks) in various power states
system.cpu0.dstage2_mmu.stage2_tlb.walker.walks            0                       # Table walker walks requested
system.cpu0.dstage2_mmu.stage2_tlb.walker.walkRequestOrigin_Requested::Data            0                       # Table walker requests started/completed, data/inst
system.cpu0.dstage2_mmu.stage2_tlb.walker.walkRequestOrigin_Requested::Inst            0                       # Table walker requests started/completed, data/inst
system.cpu0.dstage2_mmu.stage2_tlb.walker.walkRequestOrigin_Requested::total            0                       # Table walker requests started/completed, data/inst
system.cpu0.dstage2_mmu.stage2_tlb.walker.walkRequestOrigin_Completed::Data            0                       # Table walker requests started/completed, data/inst
system.cpu0.dstage2_mmu.stage2_tlb.walker.walkRequestOrigin_Completed::Inst            0                       # Table walker requests started/completed, data/inst
system.cpu0.dstage2_mmu.stage2_tlb.walker.walkRequestOrigin_Completed::total            0                       # Table walker requests started/completed, data/inst
system.cpu0.dstage2_mmu.stage2_tlb.walker.walkRequestOrigin::total            0                       # Table walker requests started/completed, data/inst
system.cpu0.dstage2_mmu.stage2_tlb.inst_hits            0                       # ITB inst hits
system.cpu0.dstage2_mmu.stage2_tlb.inst_misses            0                       # ITB inst misses
system.cpu0.dstage2_mmu.stage2_tlb.read_hits            0                       # DTB read hits
system.cpu0.dstage2_mmu.stage2_tlb.read_misses            0                       # DTB read misses
system.cpu0.dstage2_mmu.stage2_tlb.write_hits            0                       # DTB write hits
system.cpu0.dstage2_mmu.stage2_tlb.write_misses            0                       # DTB write misses
system.cpu0.dstage2_mmu.stage2_tlb.flush_tlb            0                       # Number of times complete TLB was flushed
system.cpu0.dstage2_mmu.stage2_tlb.flush_tlb_mva            0                       # Number of times TLB was flushed by MVA
system.cpu0.dstage2_mmu.stage2_tlb.flush_tlb_mva_asid            0                       # Number of times TLB was flushed by MVA & ASID
system.cpu0.dstage2_mmu.stage2_tlb.flush_tlb_asid            0                       # Number of times TLB was flushed by ASID
system.cpu0.dstage2_mmu.stage2_tlb.flush_entries            0                       # Number of entries that have been flushed from TLB
system.cpu0.dstage2_mmu.stage2_tlb.align_faults            0                       # Number of TLB faults due to alignment restrictions
system.cpu0.dstage2_mmu.stage2_tlb.prefetch_faults            0                       # Number of TLB faults due to prefetch
system.cpu0.dstage2_mmu.stage2_tlb.domain_faults            0                       # Number of TLB faults due to domain restrictions
system.cpu0.dstage2_mmu.stage2_tlb.perms_faults            0                       # Number of TLB faults due to permissions restrictions
system.cpu0.dstage2_mmu.stage2_tlb.read_accesses            0                       # DTB read accesses
system.cpu0.dstage2_mmu.stage2_tlb.write_accesses            0                       # DTB write accesses
system.cpu0.dstage2_mmu.stage2_tlb.inst_accesses            0                       # ITB inst accesses
system.cpu0.dstage2_mmu.stage2_tlb.hits             0                       # DTB hits
system.cpu0.dstage2_mmu.stage2_tlb.misses            0                       # DTB misses
system.cpu0.dstage2_mmu.stage2_tlb.accesses            0                       # DTB accesses
system.cpu0.dtb.walker.pwrStateResidencyTicks::UNDEFINED 91438994896000                       # Cumulative time (in ticks) in various power states
system.cpu0.dtb.walker.walks                     1655                       # Table walker walks requested
system.cpu0.dtb.walker.walksShort                1655                       # Table walker walks initiated with short descriptors
system.cpu0.dtb.walker.walkWaitTime::samples         1655                       # Table walker wait (enqueue to first request) latency
system.cpu0.dtb.walker.walkWaitTime::0           1655    100.00%    100.00% # Table walker wait (enqueue to first request) latency
system.cpu0.dtb.walker.walkWaitTime::total         1655                       # Table walker wait (enqueue to first request) latency
system.cpu0.dtb.walker.walkPageSizes::4K         1250     80.08%     80.08% # Table walker page sizes translated
system.cpu0.dtb.walker.walkPageSizes::1M          311     19.92%    100.00% # Table walker page sizes translated
system.cpu0.dtb.walker.walkPageSizes::total         1561                       # Table walker page sizes translated
system.cpu0.dtb.walker.walkRequestOrigin_Requested::Data         1655                       # Table walker requests started/completed, data/inst
system.cpu0.dtb.walker.walkRequestOrigin_Requested::Inst            0                       # Table walker requests started/completed, data/inst
system.cpu0.dtb.walker.walkRequestOrigin_Requested::total         1655                       # Table walker requests started/completed, data/inst
system.cpu0.dtb.walker.walkRequestOrigin_Completed::Data         1561                       # Table walker requests started/completed, data/inst
system.cpu0.dtb.walker.walkRequestOrigin_Completed::Inst            0                       # Table walker requests started/completed, data/inst
system.cpu0.dtb.walker.walkRequestOrigin_Completed::total         1561                       # Table walker requests started/completed, data/inst
system.cpu0.dtb.walker.walkRequestOrigin::total         3216                       # Table walker requests started/completed, data/inst
system.cpu0.dtb.inst_hits                           0                       # ITB inst hits
system.cpu0.dtb.inst_misses                         0                       # ITB inst misses
system.cpu0.dtb.read_hits                     2651979                       # DTB read hits
system.cpu0.dtb.read_misses                      1331                       # DTB read misses
system.cpu0.dtb.write_hits                    2169831                       # DTB write hits
system.cpu0.dtb.write_misses                      324                       # DTB write misses
system.cpu0.dtb.flush_tlb                           8                       # Number of times complete TLB was flushed
system.cpu0.dtb.flush_tlb_mva                     283                       # Number of times TLB was flushed by MVA
system.cpu0.dtb.flush_tlb_mva_asid                  0                       # Number of times TLB was flushed by MVA & ASID
system.cpu0.dtb.flush_tlb_asid                      0                       # Number of times TLB was flushed by ASID
system.cpu0.dtb.flush_entries                     527                       # Number of entries that have been flushed from TLB
system.cpu0.dtb.align_faults                        0                       # Number of TLB faults due to alignment restrictions
system.cpu0.dtb.prefetch_faults                    55                       # Number of TLB faults due to prefetch
system.cpu0.dtb.domain_faults                       0                       # Number of TLB faults due to domain restrictions
system.cpu0.dtb.perms_faults                       72                       # Number of TLB faults due to permissions restrictions
system.cpu0.dtb.read_accesses                 2653310                       # DTB read accesses
system.cpu0.dtb.write_accesses                2170155                       # DTB write accesses
system.cpu0.dtb.inst_accesses                       0                       # ITB inst accesses
system.cpu0.dtb.hits                          4821810                       # DTB hits
system.cpu0.dtb.misses                           1655                       # DTB misses
system.cpu0.dtb.accesses                      4823465                       # DTB accesses
system.cpu0.istage2_mmu.stage2_tlb.walker.pwrStateResidencyTicks::UNDEFINED 91438994896000                       # Cumulative time (in ticks) in various power states
system.cpu0.istage2_mmu.stage2_tlb.walker.walks            0                       # Table walker walks requested
system.cpu0.istage2_mmu.stage2_tlb.walker.walkRequestOrigin_Requested::Data            0                       # Table walker requests started/completed, data/inst
system.cpu0.istage2_mmu.stage2_tlb.walker.walkRequestOrigin_Requested::Inst            0                       # Table walker requests started/completed, data/inst
system.cpu0.istage2_mmu.stage2_tlb.walker.walkRequestOrigin_Requested::total            0                       # Table walker requests started/completed, data/inst
system.cpu0.istage2_mmu.stage2_tlb.walker.walkRequestOrigin_Completed::Data            0                       # Table walker requests started/completed, data/inst
system.cpu0.istage2_mmu.stage2_tlb.walker.walkRequestOrigin_Completed::Inst            0                       # Table walker requests started/completed, data/inst
system.cpu0.istage2_mmu.stage2_tlb.walker.walkRequestOrigin_Completed::total            0                       # Table walker requests started/completed, data/inst
system.cpu0.istage2_mmu.stage2_tlb.walker.walkRequestOrigin::total            0                       # Table walker requests started/completed, data/inst
system.cpu0.istage2_mmu.stage2_tlb.inst_hits            0                       # ITB inst hits
system.cpu0.istage2_mmu.stage2_tlb.inst_misses            0                       # ITB inst misses
system.cpu0.istage2_mmu.stage2_tlb.read_hits            0                       # DTB read hits
system.cpu0.istage2_mmu.stage2_tlb.read_misses            0                       # DTB read misses
system.cpu0.istage2_mmu.stage2_tlb.write_hits            0                       # DTB write hits
system.cpu0.istage2_mmu.stage2_tlb.write_misses            0                       # DTB write misses
system.cpu0.istage2_mmu.stage2_tlb.flush_tlb            0                       # Number of times complete TLB was flushed
system.cpu0.istage2_mmu.stage2_tlb.flush_tlb_mva            0                       # Number of times TLB was flushed by MVA
system.cpu0.istage2_mmu.stage2_tlb.flush_tlb_mva_asid            0                       # Number of times TLB was flushed by MVA & ASID
system.cpu0.istage2_mmu.stage2_tlb.flush_tlb_asid            0                       # Number of times TLB was flushed by ASID
system.cpu0.istage2_mmu.stage2_tlb.flush_entries            0                       # Number of entries that have been flushed from TLB
system.cpu0.istage2_mmu.stage2_tlb.align_faults            0                       # Number of TLB faults due to alignment restrictions
system.cpu0.istage2_mmu.stage2_tlb.prefetch_faults            0                       # Number of TLB faults due to prefetch
system.cpu0.istage2_mmu.stage2_tlb.domain_faults            0                       # Number of TLB faults due to domain restrictions
system.cpu0.istage2_mmu.stage2_tlb.perms_faults            0                       # Number of TLB faults due to permissions restrictions
system.cpu0.istage2_mmu.stage2_tlb.read_accesses            0                       # DTB read accesses
system.cpu0.istage2_mmu.stage2_tlb.write_accesses            0                       # DTB write accesses
system.cpu0.istage2_mmu.stage2_tlb.inst_accesses            0                       # ITB inst accesses
system.cpu0.istage2_mmu.stage2_tlb.hits             0                       # DTB hits
system.cpu0.istage2_mmu.stage2_tlb.misses            0                       # DTB misses
system.cpu0.istage2_mmu.stage2_tlb.accesses            0                       # DTB accesses
system.cpu0.itb.walker.pwrStateResidencyTicks::UNDEFINED 91438994896000                       # Cumulative time (in ticks) in various power states
system.cpu0.itb.walker.walks                      718                       # Table walker walks requested
system.cpu0.itb.walker.walksShort                 718                       # Table walker walks initiated with short descriptors
system.cpu0.itb.walker.walkWaitTime::samples          718                       # Table walker wait (enqueue to first request) latency
system.cpu0.itb.walker.walkWaitTime::0            718    100.00%    100.00% # Table walker wait (enqueue to first request) latency
system.cpu0.itb.walker.walkWaitTime::total          718                       # Table walker wait (enqueue to first request) latency
system.cpu0.itb.walker.walkPageSizes::4K          614     93.17%     93.17% # Table walker page sizes translated
system.cpu0.itb.walker.walkPageSizes::1M           45      6.83%    100.00% # Table walker page sizes translated
system.cpu0.itb.walker.walkPageSizes::total          659                       # Table walker page sizes translated
system.cpu0.itb.walker.walkRequestOrigin_Requested::Data            0                       # Table walker requests started/completed, data/inst
system.cpu0.itb.walker.walkRequestOrigin_Requested::Inst          718                       # Table walker requests started/completed, data/inst
system.cpu0.itb.walker.walkRequestOrigin_Requested::total          718                       # Table walker requests started/completed, data/inst
system.cpu0.itb.walker.walkRequestOrigin_Completed::Data            0                       # Table walker requests started/completed, data/inst
system.cpu0.itb.walker.walkRequestOrigin_Completed::Inst          659                       # Table walker requests started/completed, data/inst
system.cpu0.itb.walker.walkRequestOrigin_Completed::total          659                       # Table walker requests started/completed, data/inst
system.cpu0.itb.walker.walkRequestOrigin::total         1377                       # Table walker requests started/completed, data/inst
system.cpu0.itb.inst_hits                    11890456                       # ITB inst hits
system.cpu0.itb.inst_misses                       718                       # ITB inst misses
system.cpu0.itb.read_hits                           0                       # DTB read hits
system.cpu0.itb.read_misses                         0                       # DTB read misses
system.cpu0.itb.write_hits                          0                       # DTB write hits
system.cpu0.itb.write_misses                        0                       # DTB write misses
system.cpu0.itb.flush_tlb                           8                       # Number of times complete TLB was flushed
system.cpu0.itb.flush_tlb_mva                     283                       # Number of times TLB was flushed by MVA
system.cpu0.itb.flush_tlb_mva_asid                  0                       # Number of times TLB was flushed by MVA & ASID
system.cpu0.itb.flush_tlb_asid                      0                       # Number of times TLB was flushed by ASID
system.cpu0.itb.flush_entries                     396                       # Number of entries that have been flushed from TLB
system.cpu0.itb.align_faults                        0                       # Number of TLB faults due to alignment restrictions
system.cpu0.itb.prefetch_faults                     0                       # Number of TLB faults due to prefetch
system.cpu0.itb.domain_faults                       0                       # Number of TLB faults due to domain restrictions
system.cpu0.itb.perms_faults                        0                       # Number of TLB faults due to permissions restrictions
system.cpu0.itb.read_accesses                       0                       # DTB read accesses
system.cpu0.itb.write_accesses                      0                       # DTB write accesses
system.cpu0.itb.inst_accesses                11891174                       # ITB inst accesses
system.cpu0.itb.hits                         11890456                       # DTB hits
system.cpu0.itb.misses                            718                       # DTB misses
system.cpu0.itb.accesses                     11891174                       # DTB accesses
system.cpu0.numPwrStateTransitions               1354                       # Number of power state transitions
system.cpu0.pwrStateClkGateDist::samples          678                       # Distribution of time spent in the clock gated state
system.cpu0.pwrStateClkGateDist::mean    134844800132.744843                       # Distribution of time spent in the clock gated state
system.cpu0.pwrStateClkGateDist::stdev   91047663854.496063                       # Distribution of time spent in the clock gated state
system.cpu0.pwrStateClkGateDist::1000-5e+10          212     31.27%     31.27% # Distribution of time spent in the clock gated state
system.cpu0.pwrStateClkGateDist::5e+10-1e+11           16      2.36%     33.63% # Distribution of time spent in the clock gated state
system.cpu0.pwrStateClkGateDist::1e+11-1.5e+11            7      1.03%     34.66% # Distribution of time spent in the clock gated state
system.cpu0.pwrStateClkGateDist::1.5e+11-2e+11          443     65.34%    100.00% # Distribution of time spent in the clock gated state
system.cpu0.pwrStateClkGateDist::min_value         1001                       # Distribution of time spent in the clock gated state
system.cpu0.pwrStateClkGateDist::max_value 199980329752                       # Distribution of time spent in the clock gated state
system.cpu0.pwrStateClkGateDist::total            678                       # Distribution of time spent in the clock gated state
system.cpu0.pwrStateResidencyTicks::ON    14220405999                       # Cumulative time (in ticks) in various power states
system.cpu0.pwrStateResidencyTicks::CLK_GATED 91424774490001                       # Cumulative time (in ticks) in various power states
system.cpu0.numCycles                     91539006460                       # number of cpu cycles simulated
system.cpu0.numWorkItemsStarted                     0                       # number of work items this cpu started
system.cpu0.numWorkItemsCompleted                   0                       # number of work items this cpu completed
system.cpu0.kern.inst.arm                           0                       # number of arm instructions executed
system.cpu0.kern.inst.quiesce                     677                       # number of quiesce instructions executed
system.cpu0.committedInsts                   11721849                       # Number of instructions committed
system.cpu0.committedOps                     14051397                       # Number of ops (including micro ops) committed
system.cpu0.num_int_alu_accesses             12483158                       # Number of integer alu accesses
system.cpu0.num_fp_alu_accesses                  3235                       # Number of float alu accesses
system.cpu0.num_func_calls                     670260                       # number of times a function call or return occured
system.cpu0.num_conditional_control_insts      1352018                       # number of instructions that are conditional controls
system.cpu0.num_int_insts                    12483158                       # number of integer instructions
system.cpu0.num_fp_insts                         3235                       # number of float instructions
system.cpu0.num_int_register_reads           22296301                       # number of times the integer registers were read
system.cpu0.num_int_register_writes           8819932                       # number of times the integer registers were written
system.cpu0.num_fp_register_reads                3043                       # number of times the floating registers were read
system.cpu0.num_fp_register_writes                192                       # number of times the floating registers were written
system.cpu0.num_cc_register_reads            42279032                       # number of times the CC registers were read
system.cpu0.num_cc_register_writes            5539352                       # number of times the CC registers were written
system.cpu0.num_mem_refs                      4993445                       # number of memory refs
system.cpu0.num_load_insts                    2695018                       # Number of load instructions
system.cpu0.num_store_insts                   2298427                       # Number of store instructions
system.cpu0.num_idle_cycles              91524770500.406540                       # Number of idle cycles
system.cpu0.num_busy_cycles              14235959.593462                       # Number of busy cycles
system.cpu0.not_idle_fraction                0.000156                       # Percentage of non-idle cycles
system.cpu0.idle_fraction                    0.999844                       # Percentage of idle cycles
system.cpu0.Branches                          2104579                       # Number of branches fetched
system.cpu0.op_class::No_OpClass                   15      0.00%      0.00% # Class of executed instruction
system.cpu0.op_class::IntAlu                  9048530     64.14%     64.14% # Class of executed instruction
system.cpu0.op_class::IntMult                   63390      0.45%     64.59% # Class of executed instruction
system.cpu0.op_class::IntDiv                        0      0.00%     64.59% # Class of executed instruction
system.cpu0.op_class::FloatAdd                      0      0.00%     64.59% # Class of executed instruction
system.cpu0.op_class::FloatCmp                      0      0.00%     64.59% # Class of executed instruction
system.cpu0.op_class::FloatCvt                      0      0.00%     64.59% # Class of executed instruction
system.cpu0.op_class::FloatMult                     0      0.00%     64.59% # Class of executed instruction
system.cpu0.op_class::FloatMultAcc                  0      0.00%     64.59% # Class of executed instruction
system.cpu0.op_class::FloatDiv                      0      0.00%     64.59% # Class of executed instruction
system.cpu0.op_class::FloatMisc                     0      0.00%     64.59% # Class of executed instruction
system.cpu0.op_class::FloatSqrt                     0      0.00%     64.59% # Class of executed instruction
system.cpu0.op_class::SimdAdd                       0      0.00%     64.59% # Class of executed instruction
system.cpu0.op_class::SimdAddAcc                    0      0.00%     64.59% # Class of executed instruction
system.cpu0.op_class::SimdAlu                       0      0.00%     64.59% # Class of executed instruction
system.cpu0.op_class::SimdCmp                       0      0.00%     64.59% # Class of executed instruction
system.cpu0.op_class::SimdCvt                       0      0.00%     64.59% # Class of executed instruction
system.cpu0.op_class::SimdMisc                      0      0.00%     64.59% # Class of executed instruction
system.cpu0.op_class::SimdMult                      0      0.00%     64.59% # Class of executed instruction
system.cpu0.op_class::SimdMultAcc                   0      0.00%     64.59% # Class of executed instruction
system.cpu0.op_class::SimdShift                     0      0.00%     64.59% # Class of executed instruction
system.cpu0.op_class::SimdShiftAcc                  0      0.00%     64.59% # Class of executed instruction
system.cpu0.op_class::SimdSqrt                      0      0.00%     64.59% # Class of executed instruction
system.cpu0.op_class::SimdFloatAdd                  0      0.00%     64.59% # Class of executed instruction
system.cpu0.op_class::SimdFloatAlu                  0      0.00%     64.59% # Class of executed instruction
system.cpu0.op_class::SimdFloatCmp                  0      0.00%     64.59% # Class of executed instruction
system.cpu0.op_class::SimdFloatCvt                  0      0.00%     64.59% # Class of executed instruction
system.cpu0.op_class::SimdFloatDiv                  0      0.00%     64.59% # Class of executed instruction
system.cpu0.op_class::SimdFloatMisc              2380      0.02%     64.60% # Class of executed instruction
system.cpu0.op_class::SimdFloatMult                 0      0.00%     64.60% # Class of executed instruction
system.cpu0.op_class::SimdFloatMultAcc              0      0.00%     64.60% # Class of executed instruction
system.cpu0.op_class::SimdFloatSqrt                 0      0.00%     64.60% # Class of executed instruction
system.cpu0.op_class::MemRead                 2694826     19.10%     83.71% # Class of executed instruction
system.cpu0.op_class::MemWrite                2295384     16.27%     99.98% # Class of executed instruction
system.cpu0.op_class::FloatMemRead                192      0.00%     99.98% # Class of executed instruction
system.cpu0.op_class::FloatMemWrite              3043      0.02%    100.00% # Class of executed instruction
system.cpu0.op_class::IprAccess                     0      0.00%    100.00% # Class of executed instruction
system.cpu0.op_class::InstPrefetch                  0      0.00%    100.00% # Class of executed instruction
system.cpu0.op_class::total                  14107760                       # Class of executed instruction
system.cpu1.dstage2_mmu.stage2_tlb.walker.pwrStateResidencyTicks::UNDEFINED 91438994896000                       # Cumulative time (in ticks) in various power states
system.cpu1.dstage2_mmu.stage2_tlb.walker.walks            0                       # Table walker walks requested
system.cpu1.dstage2_mmu.stage2_tlb.walker.walkRequestOrigin_Requested::Data            0                       # Table walker requests started/completed, data/inst
system.cpu1.dstage2_mmu.stage2_tlb.walker.walkRequestOrigin_Requested::Inst            0                       # Table walker requests started/completed, data/inst
system.cpu1.dstage2_mmu.stage2_tlb.walker.walkRequestOrigin_Requested::total            0                       # Table walker requests started/completed, data/inst
system.cpu1.dstage2_mmu.stage2_tlb.walker.walkRequestOrigin_Completed::Data            0                       # Table walker requests started/completed, data/inst
system.cpu1.dstage2_mmu.stage2_tlb.walker.walkRequestOrigin_Completed::Inst            0                       # Table walker requests started/completed, data/inst
system.cpu1.dstage2_mmu.stage2_tlb.walker.walkRequestOrigin_Completed::total            0                       # Table walker requests started/completed, data/inst
system.cpu1.dstage2_mmu.stage2_tlb.walker.walkRequestOrigin::total            0                       # Table walker requests started/completed, data/inst
system.cpu1.dstage2_mmu.stage2_tlb.inst_hits            0                       # ITB inst hits
system.cpu1.dstage2_mmu.stage2_tlb.inst_misses            0                       # ITB inst misses
system.cpu1.dstage2_mmu.stage2_tlb.read_hits            0                       # DTB read hits
system.cpu1.dstage2_mmu.stage2_tlb.read_misses            0                       # DTB read misses
system.cpu1.dstage2_mmu.stage2_tlb.write_hits            0                       # DTB write hits
system.cpu1.dstage2_mmu.stage2_tlb.write_misses            0                       # DTB write misses
system.cpu1.dstage2_mmu.stage2_tlb.flush_tlb            0                       # Number of times complete TLB was flushed
system.cpu1.dstage2_mmu.stage2_tlb.flush_tlb_mva            0                       # Number of times TLB was flushed by MVA
system.cpu1.dstage2_mmu.stage2_tlb.flush_tlb_mva_asid            0                       # Number of times TLB was flushed by MVA & ASID
system.cpu1.dstage2_mmu.stage2_tlb.flush_tlb_asid            0                       # Number of times TLB was flushed by ASID
system.cpu1.dstage2_mmu.stage2_tlb.flush_entries            0                       # Number of entries that have been flushed from TLB
system.cpu1.dstage2_mmu.stage2_tlb.align_faults            0                       # Number of TLB faults due to alignment restrictions
system.cpu1.dstage2_mmu.stage2_tlb.prefetch_faults            0                       # Number of TLB faults due to prefetch
system.cpu1.dstage2_mmu.stage2_tlb.domain_faults            0                       # Number of TLB faults due to domain restrictions
system.cpu1.dstage2_mmu.stage2_tlb.perms_faults            0                       # Number of TLB faults due to permissions restrictions
system.cpu1.dstage2_mmu.stage2_tlb.read_accesses            0                       # DTB read accesses
system.cpu1.dstage2_mmu.stage2_tlb.write_accesses            0                       # DTB write accesses
system.cpu1.dstage2_mmu.stage2_tlb.inst_accesses            0                       # ITB inst accesses
system.cpu1.dstage2_mmu.stage2_tlb.hits             0                       # DTB hits
system.cpu1.dstage2_mmu.stage2_tlb.misses            0                       # DTB misses
system.cpu1.dstage2_mmu.stage2_tlb.accesses            0                       # DTB accesses
system.cpu1.dtb.walker.pwrStateResidencyTicks::UNDEFINED 91438994896000                       # Cumulative time (in ticks) in various power states
system.cpu1.dtb.walker.walks                     7740                       # Table walker walks requested
system.cpu1.dtb.walker.walksShort                7740                       # Table walker walks initiated with short descriptors
system.cpu1.dtb.walker.walkWaitTime::samples         7740                       # Table walker wait (enqueue to first request) latency
system.cpu1.dtb.walker.walkWaitTime::0           7740    100.00%    100.00% # Table walker wait (enqueue to first request) latency
system.cpu1.dtb.walker.walkWaitTime::total         7740                       # Table walker wait (enqueue to first request) latency
system.cpu1.dtb.walker.walkPageSizes::4K         5893     81.44%     81.44% # Table walker page sizes translated
system.cpu1.dtb.walker.walkPageSizes::1M         1343     18.56%    100.00% # Table walker page sizes translated
system.cpu1.dtb.walker.walkPageSizes::total         7236                       # Table walker page sizes translated
system.cpu1.dtb.walker.walkRequestOrigin_Requested::Data         7740                       # Table walker requests started/completed, data/inst
system.cpu1.dtb.walker.walkRequestOrigin_Requested::Inst            0                       # Table walker requests started/completed, data/inst
system.cpu1.dtb.walker.walkRequestOrigin_Requested::total         7740                       # Table walker requests started/completed, data/inst
system.cpu1.dtb.walker.walkRequestOrigin_Completed::Data         7236                       # Table walker requests started/completed, data/inst
system.cpu1.dtb.walker.walkRequestOrigin_Completed::Inst            0                       # Table walker requests started/completed, data/inst
system.cpu1.dtb.walker.walkRequestOrigin_Completed::total         7236                       # Table walker requests started/completed, data/inst
system.cpu1.dtb.walker.walkRequestOrigin::total        14976                       # Table walker requests started/completed, data/inst
system.cpu1.dtb.inst_hits                           0                       # ITB inst hits
system.cpu1.dtb.inst_misses                         0                       # ITB inst misses
system.cpu1.dtb.read_hits                     7360162                       # DTB read hits
system.cpu1.dtb.read_misses                      7036                       # DTB read misses
system.cpu1.dtb.write_hits                    4200244                       # DTB write hits
system.cpu1.dtb.write_misses                      704                       # DTB write misses
system.cpu1.dtb.flush_tlb                           8                       # Number of times complete TLB was flushed
system.cpu1.dtb.flush_tlb_mva                     283                       # Number of times TLB was flushed by MVA
system.cpu1.dtb.flush_tlb_mva_asid                  0                       # Number of times TLB was flushed by MVA & ASID
system.cpu1.dtb.flush_tlb_asid                      0                       # Number of times TLB was flushed by ASID
system.cpu1.dtb.flush_entries                     588                       # Number of entries that have been flushed from TLB
system.cpu1.dtb.align_faults                        0                       # Number of TLB faults due to alignment restrictions
system.cpu1.dtb.prefetch_faults                   364                       # Number of TLB faults due to prefetch
system.cpu1.dtb.domain_faults                       0                       # Number of TLB faults due to domain restrictions
system.cpu1.dtb.perms_faults                       78                       # Number of TLB faults due to permissions restrictions
system.cpu1.dtb.read_accesses                 7367198                       # DTB read accesses
system.cpu1.dtb.write_accesses                4200948                       # DTB write accesses
system.cpu1.dtb.inst_accesses                       0                       # ITB inst accesses
system.cpu1.dtb.hits                         11560406                       # DTB hits
system.cpu1.dtb.misses                           7740                       # DTB misses
system.cpu1.dtb.accesses                     11568146                       # DTB accesses
system.cpu1.istage2_mmu.stage2_tlb.walker.pwrStateResidencyTicks::UNDEFINED 91438994896000                       # Cumulative time (in ticks) in various power states
system.cpu1.istage2_mmu.stage2_tlb.walker.walks            0                       # Table walker walks requested
system.cpu1.istage2_mmu.stage2_tlb.walker.walkRequestOrigin_Requested::Data            0                       # Table walker requests started/completed, data/inst
system.cpu1.istage2_mmu.stage2_tlb.walker.walkRequestOrigin_Requested::Inst            0                       # Table walker requests started/completed, data/inst
system.cpu1.istage2_mmu.stage2_tlb.walker.walkRequestOrigin_Requested::total            0                       # Table walker requests started/completed, data/inst
system.cpu1.istage2_mmu.stage2_tlb.walker.walkRequestOrigin_Completed::Data            0                       # Table walker requests started/completed, data/inst
system.cpu1.istage2_mmu.stage2_tlb.walker.walkRequestOrigin_Completed::Inst            0                       # Table walker requests started/completed, data/inst
system.cpu1.istage2_mmu.stage2_tlb.walker.walkRequestOrigin_Completed::total            0                       # Table walker requests started/completed, data/inst
system.cpu1.istage2_mmu.stage2_tlb.walker.walkRequestOrigin::total            0                       # Table walker requests started/completed, data/inst
system.cpu1.istage2_mmu.stage2_tlb.inst_hits            0                       # ITB inst hits
system.cpu1.istage2_mmu.stage2_tlb.inst_misses            0                       # ITB inst misses
system.cpu1.istage2_mmu.stage2_tlb.read_hits            0                       # DTB read hits
system.cpu1.istage2_mmu.stage2_tlb.read_misses            0                       # DTB read misses
system.cpu1.istage2_mmu.stage2_tlb.write_hits            0                       # DTB write hits
system.cpu1.istage2_mmu.stage2_tlb.write_misses            0                       # DTB write misses
system.cpu1.istage2_mmu.stage2_tlb.flush_tlb            0                       # Number of times complete TLB was flushed
system.cpu1.istage2_mmu.stage2_tlb.flush_tlb_mva            0                       # Number of times TLB was flushed by MVA
system.cpu1.istage2_mmu.stage2_tlb.flush_tlb_mva_asid            0                       # Number of times TLB was flushed by MVA & ASID
system.cpu1.istage2_mmu.stage2_tlb.flush_tlb_asid            0                       # Number of times TLB was flushed by ASID
system.cpu1.istage2_mmu.stage2_tlb.flush_entries            0                       # Number of entries that have been flushed from TLB
system.cpu1.istage2_mmu.stage2_tlb.align_faults            0                       # Number of TLB faults due to alignment restrictions
system.cpu1.istage2_mmu.stage2_tlb.prefetch_faults            0                       # Number of TLB faults due to prefetch
system.cpu1.istage2_mmu.stage2_tlb.domain_faults            0                       # Number of TLB faults due to domain restrictions
system.cpu1.istage2_mmu.stage2_tlb.perms_faults            0                       # Number of TLB faults due to permissions restrictions
system.cpu1.istage2_mmu.stage2_tlb.read_accesses            0                       # DTB read accesses
system.cpu1.istage2_mmu.stage2_tlb.write_accesses            0                       # DTB write accesses
system.cpu1.istage2_mmu.stage2_tlb.inst_accesses            0                       # ITB inst accesses
system.cpu1.istage2_mmu.stage2_tlb.hits             0                       # DTB hits
system.cpu1.istage2_mmu.stage2_tlb.misses            0                       # DTB misses
system.cpu1.istage2_mmu.stage2_tlb.accesses            0                       # DTB accesses
system.cpu1.itb.walker.pwrStateResidencyTicks::UNDEFINED 91438994896000                       # Cumulative time (in ticks) in various power states
system.cpu1.itb.walker.walks                     2078                       # Table walker walks requested
system.cpu1.itb.walker.walksShort                2078                       # Table walker walks initiated with short descriptors
system.cpu1.itb.walker.walkWaitTime::samples         2078                       # Table walker wait (enqueue to first request) latency
system.cpu1.itb.walker.walkWaitTime::0           2078    100.00%    100.00% # Table walker wait (enqueue to first request) latency
system.cpu1.itb.walker.walkWaitTime::total         2078                       # Table walker wait (enqueue to first request) latency
system.cpu1.itb.walker.walkPageSizes::4K         1563     93.26%     93.26% # Table walker page sizes translated
system.cpu1.itb.walker.walkPageSizes::1M          113      6.74%    100.00% # Table walker page sizes translated
system.cpu1.itb.walker.walkPageSizes::total         1676                       # Table walker page sizes translated
system.cpu1.itb.walker.walkRequestOrigin_Requested::Data            0                       # Table walker requests started/completed, data/inst
system.cpu1.itb.walker.walkRequestOrigin_Requested::Inst         2078                       # Table walker requests started/completed, data/inst
system.cpu1.itb.walker.walkRequestOrigin_Requested::total         2078                       # Table walker requests started/completed, data/inst
system.cpu1.itb.walker.walkRequestOrigin_Completed::Data            0                       # Table walker requests started/completed, data/inst
system.cpu1.itb.walker.walkRequestOrigin_Completed::Inst         1676                       # Table walker requests started/completed, data/inst
system.cpu1.itb.walker.walkRequestOrigin_Completed::total         1676                       # Table walker requests started/completed, data/inst
system.cpu1.itb.walker.walkRequestOrigin::total         3754                       # Table walker requests started/completed, data/inst
system.cpu1.itb.inst_hits                    32318985                       # ITB inst hits
system.cpu1.itb.inst_misses                      2078                       # ITB inst misses
system.cpu1.itb.read_hits                           0                       # DTB read hits
system.cpu1.itb.read_misses                         0                       # DTB read misses
system.cpu1.itb.write_hits                          0                       # DTB write hits
system.cpu1.itb.write_misses                        0                       # DTB write misses
system.cpu1.itb.flush_tlb                           8                       # Number of times complete TLB was flushed
system.cpu1.itb.flush_tlb_mva                     283                       # Number of times TLB was flushed by MVA
system.cpu1.itb.flush_tlb_mva_asid                  0                       # Number of times TLB was flushed by MVA & ASID
system.cpu1.itb.flush_tlb_asid                      0                       # Number of times TLB was flushed by ASID
system.cpu1.itb.flush_entries                     386                       # Number of entries that have been flushed from TLB
system.cpu1.itb.align_faults                        0                       # Number of TLB faults due to alignment restrictions
system.cpu1.itb.prefetch_faults                     0                       # Number of TLB faults due to prefetch
system.cpu1.itb.domain_faults                       0                       # Number of TLB faults due to domain restrictions
system.cpu1.itb.perms_faults                        0                       # Number of TLB faults due to permissions restrictions
system.cpu1.itb.read_accesses                       0                       # DTB read accesses
system.cpu1.itb.write_accesses                      0                       # DTB write accesses
system.cpu1.itb.inst_accesses                32321063                       # ITB inst accesses
system.cpu1.itb.hits                         32318985                       # DTB hits
system.cpu1.itb.misses                           2078                       # DTB misses
system.cpu1.itb.accesses                     32321063                       # DTB accesses
system.cpu1.numPwrStateTransitions                226                       # Number of power state transitions
system.cpu1.pwrStateClkGateDist::samples          113                       # Distribution of time spent in the clock gated state
system.cpu1.pwrStateClkGateDist::mean    808847984998.053101                       # Distribution of time spent in the clock gated state
system.cpu1.pwrStateClkGateDist::stdev   7389854113185.311523                       # Distribution of time spent in the clock gated state
system.cpu1.pwrStateClkGateDist::1000-5e+10          107     94.69%     94.69% # Distribution of time spent in the clock gated state
system.cpu1.pwrStateClkGateDist::2e+11-2.5e+11            1      0.88%     95.58% # Distribution of time spent in the clock gated state
system.cpu1.pwrStateClkGateDist::overflows            5      4.42%    100.00% # Distribution of time spent in the clock gated state
system.cpu1.pwrStateClkGateDist::min_value         1001                       # Distribution of time spent in the clock gated state
system.cpu1.pwrStateClkGateDist::max_value 78333753948000                       # Distribution of time spent in the clock gated state
system.cpu1.pwrStateClkGateDist::total            113                       # Distribution of time spent in the clock gated state
system.cpu1.pwrStateResidencyTicks::ON    39172591220                       # Cumulative time (in ticks) in various power states
system.cpu1.pwrStateResidencyTicks::CLK_GATED 91399822304780                       # Cumulative time (in ticks) in various power states
system.cpu1.numCycles                     91438995009                       # number of cpu cycles simulated
system.cpu1.numWorkItemsStarted                     0                       # number of work items this cpu started
system.cpu1.numWorkItemsCompleted                   0                       # number of work items this cpu completed
[...]
system.membus.snoop_filter.hit_multi_requests            0                       # Number of requests hitting in the snoop filter with multiple (>1) holders of the requested data.
system.membus.snoop_filter.tot_snoops               0                       # Total number of snoops made to the snoop filter.
system.membus.snoop_filter.hit_single_snoops            0                       # Number of snoops hitting in the snoop filter with a single holder of the requested data.
system.membus.snoop_filter.hit_multi_snoops            0                       # Number of snoops hitting in the snoop filter with multiple (>1) holders of the requested data.
system.membus.pwrStateResidencyTicks::UNDEFINED 91438994896000                       # Cumulative time (in ticks) in various power states
system.membus.trans_dist::ReadReq           403813282                       # Transaction distribution
system.membus.trans_dist::ReadResp          403917748                       # Transaction distribution
system.membus.trans_dist::WriteReq            6293007                       # Transaction distribution
system.membus.trans_dist::WriteResp           6293007                       # Transaction distribution
system.membus.trans_dist::SoftPFReq             91497                       # Transaction distribution
system.membus.trans_dist::SoftPFResp            91497                       # Transaction distribution
system.membus.trans_dist::LoadLockedReq        104466                       # Transaction distribution
system.membus.trans_dist::StoreCondReq         103079                       # Transaction distribution
system.membus.trans_dist::StoreCondResp        103079                       # Transaction distribution
system.membus.pkt_count_system.realview.hdlcd.dma::system.mem_ctrls.port    699503566                       # Packet count per connected master and slave (bytes)
system.membus.pkt_count_system.realview.hdlcd.dma::total    699503566                       # Packet count per connected master and slave (bytes)
system.membus.pkt_count_system.iobridge.master::system.mem_ctrls.port        56698                       # Packet count per connected master and slave (bytes)
system.membus.pkt_count_system.iobridge.master::total        56698                       # Packet count per connected master and slave (bytes)
system.membus.pkt_count_system.cpu0.icache_port::system.mem_ctrls.port     23782230                       # Packet count per connected master and slave (bytes)
system.membus.pkt_count_system.cpu0.icache_port::total     23782230                       # Packet count per connected master and slave (bytes)
system.membus.pkt_count_system.cpu0.dcache_port::system.bridge.slave         5132                       # Packet count per connected master and slave (bytes)
system.membus.pkt_count_system.cpu0.dcache_port::system.realview.gic.pio         4806                       # Packet count per connected master and slave (bytes)
system.membus.pkt_count_system.cpu0.dcache_port::system.mem_ctrls.port      9636660                       # Packet count per connected master and slave (bytes)
system.membus.pkt_count_system.cpu0.dcache_port::total      9646598                       # Packet count per connected master and slave (bytes)
system.membus.pkt_count_system.cpu0.itb.walker.dma::system.mem_ctrls.port         2782                       # Packet count per connected master and slave (bytes)
system.membus.pkt_count_system.cpu0.itb.walker.dma::total         2782                       # Packet count per connected master and slave (bytes)
system.membus.pkt_count_system.cpu0.dtb.walker.dma::system.mem_ctrls.port         5998                       # Packet count per connected master and slave (bytes)
system.membus.pkt_count_system.cpu0.dtb.walker.dma::total         5998                       # Packet count per connected master and slave (bytes)
system.membus.pkt_count_system.cpu1.icache_port::system.mem_ctrls.port     64641322                       # Packet count per connected master and slave (bytes)
system.membus.pkt_count_system.cpu1.icache_port::total     64641322                       # Packet count per connected master and slave (bytes)
system.membus.pkt_count_system.cpu1.dcache_port::system.bridge.slave         5518                       # Packet count per connected master and slave (bytes)
system.membus.pkt_count_system.cpu1.dcache_port::system.realview.gic.pio         1100                       # Packet count per connected master and slave (bytes)
system.membus.pkt_count_system.cpu1.dcache_port::system.mem_ctrls.port     23128508                       # Packet count per connected master and slave (bytes)
system.membus.pkt_count_system.cpu1.dcache_port::total     23135126                       # Packet count per connected master and slave (bytes)
system.membus.pkt_count_system.cpu1.itb.walker.dma::system.mem_ctrls.port         8086                       # Packet count per connected master and slave (bytes)
system.membus.pkt_count_system.cpu1.itb.walker.dma::total         8086                       # Packet count per connected master and slave (bytes)
system.membus.pkt_count_system.cpu1.dtb.walker.dma::system.mem_ctrls.port        28256                       # Packet count per connected master and slave (bytes)
system.membus.pkt_count_system.cpu1.dtb.walker.dma::total        28256                       # Packet count per connected master and slave (bytes)
system.membus.pkt_count::total              820810662                       # Packet count per connected master and slave (bytes)
system.membus.pkt_size_system.realview.hdlcd.dma::system.mem_ctrls.port  22384114112                       # Cumulative packet size per connected master and slave (bytes)
system.membus.pkt_size_system.realview.hdlcd.dma::total  22384114112                       # Cumulative packet size per connected master and slave (bytes)
system.membus.pkt_size_system.iobridge.master::system.mem_ctrls.port      1790312                       # Cumulative packet size per connected master and slave (bytes)
system.membus.pkt_size_system.iobridge.master::total      1790312                       # Cumulative packet size per connected master and slave (bytes)
system.membus.pkt_size_system.cpu0.icache_port::system.mem_ctrls.port     47564460                       # Cumulative packet size per connected master and slave (bytes)
system.membus.pkt_size_system.cpu0.icache_port::total     47564460                       # Cumulative packet size per connected master and slave (bytes)
system.membus.pkt_size_system.cpu0.dcache_port::system.bridge.slave         3710                       # Cumulative packet size per connected master and slave (bytes)
system.membus.pkt_size_system.cpu0.dcache_port::system.realview.gic.pio         9612                       # Cumulative packet size per connected master and slave (bytes)
system.membus.pkt_size_system.cpu0.dcache_port::system.mem_ctrls.port     21918977                       # Cumulative packet size per connected master and slave (bytes)
system.membus.pkt_size_system.cpu0.dcache_port::total     21932299                       # Cumulative packet size per connected master and slave (bytes)
system.membus.pkt_size_system.cpu0.itb.walker.dma::system.mem_ctrls.port         5564                       # Cumulative packet size per connected master and slave (bytes)
system.membus.pkt_size_system.cpu0.itb.walker.dma::total         5564                       # Cumulative packet size per connected master and slave (bytes)
system.membus.pkt_size_system.cpu0.dtb.walker.dma::system.mem_ctrls.port        11996                       # Cumulative packet size per connected master and slave (bytes)
system.membus.pkt_size_system.cpu0.dtb.walker.dma::total        11996                       # Cumulative packet size per connected master and slave (bytes)
system.membus.pkt_size_system.cpu1.icache_port::system.mem_ctrls.port    129282644                       # Cumulative packet size per connected master and slave (bytes)
system.membus.pkt_size_system.cpu1.icache_port::total    129282644                       # Cumulative packet size per connected master and slave (bytes)
system.membus.pkt_size_system.cpu1.dcache_port::system.bridge.slave         3401                       # Cumulative packet size per connected master and slave (bytes)
system.membus.pkt_size_system.cpu1.dcache_port::system.realview.gic.pio         2200                       # Cumulative packet size per connected master and slave (bytes)
system.membus.pkt_size_system.cpu1.dcache_port::system.mem_ctrls.port     44007555                       # Cumulative packet size per connected master and slave (bytes)
system.membus.pkt_size_system.cpu1.dcache_port::total     44013156                       # Cumulative packet size per connected master and slave (bytes)
system.membus.pkt_size_system.cpu1.itb.walker.dma::system.mem_ctrls.port        16172                       # Cumulative packet size per connected master and slave (bytes)
system.membus.pkt_size_system.cpu1.itb.walker.dma::total        16172                       # Cumulative packet size per connected master and slave (bytes)
system.membus.pkt_size_system.cpu1.dtb.walker.dma::system.mem_ctrls.port        56512                       # Cumulative packet size per connected master and slave (bytes)
system.membus.pkt_size_system.cpu1.dtb.walker.dma::total        56512                       # Cumulative packet size per connected master and slave (bytes)
system.membus.pkt_size::total             22628787227                       # Cumulative packet size per connected master and slave (bytes)
system.membus.snoops                                0                       # Total snoops (count)
system.membus.snoopTraffic                          0                       # Total snoop traffic (bytes)
system.membus.snoop_fanout::samples         410405331                       # Request fanout histogram
system.membus.snoop_fanout::mean                    0                       # Request fanout histogram
system.membus.snoop_fanout::stdev                   0                       # Request fanout histogram
system.membus.snoop_fanout::underflows              0      0.00%      0.00% # Request fanout histogram
system.membus.snoop_fanout::0               410405331    100.00%    100.00% # Request fanout histogram
system.membus.snoop_fanout::1                       0      0.00%    100.00% # Request fanout histogram
system.membus.snoop_fanout::2                       0      0.00%    100.00% # Request fanout histogram
system.membus.snoop_fanout::overflows               0      0.00%    100.00% # Request fanout histogram
system.membus.snoop_fanout::min_value               0                       # Request fanout histogram
system.membus.snoop_fanout::max_value               0                       # Request fanout histogram
system.membus.snoop_fanout::total           410405331                       # Request fanout histogram
system.membus.badaddr_responder.pwrStateResidencyTicks::UNDEFINED 91438994896000                       # Cumulative time (in ticks) in various power states
system.realview.aaci_fake.pwrStateResidencyTicks::UNDEFINED 91438994896000                       # Cumulative time (in ticks) in various power states
system.realview.pci_host.pwrStateResidencyTicks::UNDEFINED 91438994896000                       # Cumulative time (in ticks) in various power states
system.realview.cf_ctrl.pwrStateResidencyTicks::UNDEFINED 91438994896000                       # Cumulative time (in ticks) in various power states
system.realview.gic.pwrStateResidencyTicks::UNDEFINED 91438994896000                       # Cumulative time (in ticks) in various power states
system.realview.clcd.pwrStateResidencyTicks::UNDEFINED 91438994896000                       # Cumulative time (in ticks) in various power states
system.realview.realview_io.pwrStateResidencyTicks::UNDEFINED 91438994896000                       # Cumulative time (in ticks) in various power states
system.realview.dcc.osc_cpu.clock               16667                       # Clock period in ticks
system.realview.dcc.osc_ddr.clock               25000                       # Clock period in ticks
system.realview.dcc.osc_hsbm.clock              25000                       # Clock period in ticks
system.realview.dcc.osc_pxl.clock                7220                       # Clock period in ticks
system.realview.dcc.osc_smb.clock               20000                       # Clock period in ticks
system.realview.dcc.osc_sys.clock               16667                       # Clock period in ticks
system.realview.energy_ctrl.pwrStateResidencyTicks::UNDEFINED 91438994896000                       # Cumulative time (in ticks) in various power states
system.realview.ethernet.pwrStateResidencyTicks::UNDEFINED 91438994896000                       # Cumulative time (in ticks) in various power states
system.realview.ethernet.descDMAReads               0                       # Number of descriptors the device read w/ DMA
system.realview.ethernet.descDMAWrites              0                       # Number of descriptors the device wrote w/ DMA
system.realview.ethernet.descDmaReadBytes            0                       # number of descriptor bytes read w/ DMA
system.realview.ethernet.descDmaWriteBytes            0                       # number of descriptor bytes write w/ DMA
system.realview.ethernet.postedSwi                  0                       # number of software interrupts posted to CPU
system.realview.ethernet.coalescedSwi             nan                       # average number of Swi's coalesced into each post
system.realview.ethernet.totalSwi                   0                       # total number of Swi written to ISR
system.realview.ethernet.postedRxIdle               0                       # number of rxIdle interrupts posted to CPU
system.realview.ethernet.coalescedRxIdle          nan                       # average number of RxIdle's coalesced into each post
system.realview.ethernet.totalRxIdle                0                       # total number of RxIdle written to ISR
system.realview.ethernet.postedRxOk                 0                       # number of RxOk interrupts posted to CPU
system.realview.ethernet.coalescedRxOk            nan                       # average number of RxOk's coalesced into each post
system.realview.ethernet.totalRxOk                  0                       # total number of RxOk written to ISR
system.realview.ethernet.postedRxDesc               0                       # number of RxDesc interrupts posted to CPU
system.realview.ethernet.coalescedRxDesc          nan                       # average number of RxDesc's coalesced into each post
system.realview.ethernet.totalRxDesc                0                       # total number of RxDesc written to ISR
system.realview.ethernet.postedTxOk                 0                       # number of TxOk interrupts posted to CPU
system.realview.ethernet.coalescedTxOk            nan                       # average number of TxOk's coalesced into each post
system.realview.ethernet.totalTxOk                  0                       # total number of TxOk written to ISR
system.realview.ethernet.postedTxIdle               0                       # number of TxIdle interrupts posted to CPU
system.realview.ethernet.coalescedTxIdle          nan                       # average number of TxIdle's coalesced into each post
system.realview.ethernet.totalTxIdle                0                       # total number of TxIdle written to ISR
system.realview.ethernet.postedTxDesc               0                       # number of TxDesc interrupts posted to CPU
system.realview.ethernet.coalescedTxDesc          nan                       # average number of TxDesc's coalesced into each post
system.realview.ethernet.totalTxDesc                0                       # total number of TxDesc written to ISR
system.realview.ethernet.postedRxOrn                0                       # number of RxOrn posted to CPU
system.realview.ethernet.coalescedRxOrn           nan                       # average number of RxOrn's coalesced into each post
system.realview.ethernet.totalRxOrn                 0                       # total number of RxOrn written to ISR
system.realview.ethernet.coalescedTotal           nan                       # average number of interrupts coalesced into each post
system.realview.ethernet.postedInterrupts            0                       # number of posts to CPU
system.realview.ethernet.droppedPackets             0                       # number of packets dropped
system.realview.hdlcd.pwrStateResidencyTicks::UNDEFINED 91438994896000                       # Cumulative time (in ticks) in various power states
system.realview.ide.pwrStateResidencyTicks::UNDEFINED 91438994896000                       # Cumulative time (in ticks) in various power states
system.realview.kmi0.pwrStateResidencyTicks::UNDEFINED 91438994896000                       # Cumulative time (in ticks) in various power states
system.realview.kmi1.pwrStateResidencyTicks::UNDEFINED 91438994896000                       # Cumulative time (in ticks) in various power states
system.realview.l2x0_fake.pwrStateResidencyTicks::UNDEFINED 91438994896000                       # Cumulative time (in ticks) in various power states
system.realview.lan_fake.pwrStateResidencyTicks::UNDEFINED 91438994896000                       # Cumulative time (in ticks) in various power states
system.realview.local_cpu_timer.pwrStateResidencyTicks::UNDEFINED 91438994896000                       # Cumulative time (in ticks) in various power states
system.realview.mcc.osc_clcd.clock              42105                       # Clock period in ticks
system.realview.mcc.osc_mcc.clock               20000                       # Clock period in ticks
system.realview.mcc.osc_peripheral.clock        41667                       # Clock period in ticks
system.realview.mcc.osc_system_bus.clock        41667                       # Clock period in ticks
system.realview.mmc_fake.pwrStateResidencyTicks::UNDEFINED 91438994896000                       # Cumulative time (in ticks) in various power states
system.realview.rtc.pwrStateResidencyTicks::UNDEFINED 91438994896000                       # Cumulative time (in ticks) in various power states
system.realview.sp810_fake.pwrStateResidencyTicks::UNDEFINED 91438994896000                       # Cumulative time (in ticks) in various power states
system.realview.timer0.pwrStateResidencyTicks::UNDEFINED 91438994896000                       # Cumulative time (in ticks) in various power states
system.realview.timer1.pwrStateResidencyTicks::UNDEFINED 91438994896000                       # Cumulative time (in ticks) in various power states
system.realview.uart.pwrStateResidencyTicks::UNDEFINED 91438994896000                       # Cumulative time (in ticks) in various power states
system.realview.uart1_fake.pwrStateResidencyTicks::UNDEFINED 91438994896000                       # Cumulative time (in ticks) in various power states
system.realview.uart2_fake.pwrStateResidencyTicks::UNDEFINED 91438994896000                       # Cumulative time (in ticks) in various power states
system.realview.uart3_fake.pwrStateResidencyTicks::UNDEFINED 91438994896000                       # Cumulative time (in ticks) in various power states
system.realview.usb_fake.pwrStateResidencyTicks::UNDEFINED 91438994896000                       # Cumulative time (in ticks) in various power states
system.realview.vgic.pwrStateResidencyTicks::UNDEFINED 91438994896000                       # Cumulative time (in ticks) in various power states
system.realview.watchdog_fake.pwrStateResidencyTicks::UNDEFINED 91438994896000                       # Cumulative time (in ticks) in various power states

---------- End Simulation Statistics   ----------

